MODPATH_PATHLINE_FILE 6 0                                                       
 1   0.0000000E+00
END HEADER
         1     1     0     1   0.0000000E+00   0.1241250E+05   0.5825000E+04   0.1782200E+04    3   86  166  1  0.5000000E+00   0.5000000E+00   0.5000000E+00     1
         1     1    -1     1   0.2980956E+02   0.1245000E+05   0.5821451E+04   0.1781975E+04    3   86  167  1  0.0000000E+00   0.4290228E+00   0.4672726E+00     1
         1     1    -1     1   0.8774313E+02   0.1252500E+05   0.5814344E+04   0.1781625E+04    3   86  168  1  0.0000000E+00   0.2868793E+00   0.4023449E+00     1
         1     1    -1     1   0.1461227E+03   0.1260000E+05   0.5807246E+04   0.1781303E+04    3   86  169  1  0.0000000E+00   0.1449156E+00   0.3492888E+00     1
         1     1    -1     1   0.2043361E+03   0.1267500E+05   0.5800186E+04   0.1780982E+04    3   86  170  1  0.0000000E+00   0.3719587E-02   0.2964356E+00     1
         1     1    -1     1   0.2058658E+03   0.1267697E+05   0.5800000E+04   0.1781008E+04    3   87  170  1  0.2629379E-01   0.1000000E+01   0.2950698E+00     1
         1     1    -1     1   0.2623900E+03   0.1275000E+05   0.5793417E+04   0.1780695E+04    3   87  171  1  0.0000000E+00   0.8683417E+00   0.2478309E+00     1
         1     1    -1     1   0.3208996E+03   0.1282500E+05   0.5786599E+04   0.1780425E+04    3   87  172  1  0.0000000E+00   0.7319714E+00   0.1848251E+00     1
         1     1    -1     1   0.3773980E+03   0.1290000E+05   0.5779875E+04   0.1780130E+04    3   87  173  1  0.0000000E+00   0.5974928E+00   0.1373124E+00     1
         1     1    -1     1   0.4355662E+03   0.1297500E+05   0.5773164E+04   0.1779858E+04    3   87  174  1  0.0000000E+00   0.4632748E+00   0.1074586E+00     1
         1     1    -1     1   0.4929469E+03   0.1305000E+05   0.5766557E+04   0.1779650E+04    3   87  175  1  0.0000000E+00   0.3311300E+00   0.6266589E-01     1
         1     1    -1     1   0.5501844E+03   0.1312500E+05   0.5759993E+04   0.1779439E+04    3   87  176  1  0.0000000E+00   0.1998623E+00   0.1629485E-01     1
         1     1    -1     1   0.5697621E+03   0.1315068E+05   0.5757763E+04   0.1779400E+04    4   87  176  1  0.3423786E+00   0.1552598E+00   0.1000000E+01     1
         1     1    -1     1   0.6074329E+03   0.1320000E+05   0.5753468E+04   0.1779225E+04    4   87  177  1  0.0000000E+00   0.6936520E-01   0.9889494E+00     1
         1     1    -1     1   0.6376798E+03   0.1323974E+05   0.5750000E+04   0.1779266E+04    4   88  177  1  0.5298040E+00   0.1000000E+01   0.9806475E+00     1
         1     1    -1     1   0.6645440E+03   0.1327500E+05   0.5746967E+04   0.1779113E+04    4   88  178  1  0.0000000E+00   0.9393356E+00   0.9728748E+00     1
         1     1    -1     1   0.7214943E+03   0.1335000E+05   0.5740563E+04   0.1778902E+04    4   88  179  1  0.0000000E+00   0.8112690E+00   0.9568719E+00     1
         1     1    -1     1   0.7785430E+03   0.1342500E+05   0.5734149E+04   0.1778640E+04    4   88  180  1  0.0000000E+00   0.6829837E+00   0.9471094E+00     1
         1     1    -1     1   0.8348702E+03   0.1350000E+05   0.5727904E+04   0.1778431E+04    4   88  181  1  0.0000000E+00   0.5580762E+00   0.9320679E+00     1
         1     1    -1     1   0.8918717E+03   0.1357500E+05   0.5721619E+04   0.1778092E+04    4   88  182  1  0.0000000E+00   0.4323853E+00   0.9105797E+00     1
         1     1    -1     1   0.9482672E+03   0.1365000E+05   0.5715370E+04   0.1777792E+04    4   88  183  1  0.0000000E+00   0.3073877E+00   0.8942538E+00     1
         1     1    -1     1   0.1004236E+04   0.1372500E+05   0.5709136E+04   0.1777546E+04    4   88  184  1  0.0000000E+00   0.1827119E+00   0.8725595E+00     1
         1     1    -1     1   0.1060430E+04   0.1380000E+05   0.5702892E+04   0.1777243E+04    4   88  185  1  0.0000000E+00   0.5784339E-01   0.8550594E+00     1
         1     1    -1     1   0.1086155E+04   0.1383468E+05   0.5700000E+04   0.1777274E+04    4   89  185  1  0.4624186E+00   0.1000000E+01   0.8468037E+00     1
         1     1    -1     1   0.1116052E+04   0.1387500E+05   0.5696691E+04   0.1777091E+04    4   89  186  1  0.0000000E+00   0.9338194E+00   0.8344098E+00     1
         1     1    -1     1   0.1171848E+04   0.1395000E+05   0.5690541E+04   0.1776896E+04    4   89  187  1  0.0000000E+00   0.8108193E+00   0.8175504E+00     1
         1     1    -1     1   0.1227256E+04   0.1402500E+05   0.5684430E+04   0.1776693E+04    4   89  188  1  0.0000000E+00   0.6886063E+00   0.7989190E+00     1
         1     1    -1     1   0.1282446E+04   0.1410000E+05   0.5678312E+04   0.1776488E+04    4   89  189  1  0.0000000E+00   0.5662285E+00   0.7793468E+00     1
         1     1    -1     1   0.1337019E+04   0.1417500E+05   0.5672240E+04   0.1776458E+04    4   89  190  1  0.0000000E+00   0.4448040E+00   0.7626907E+00     1
         1     1    -1     1   0.1392171E+04   0.1425000E+05   0.5666109E+04   0.1776446E+04    4   89  191  1  0.0000000E+00   0.3221848E+00   0.7455965E+00     1
         1     1    -1     1   0.1447080E+04   0.1432500E+05   0.5659992E+04   0.1776421E+04    4   89  192  1  0.0000000E+00   0.1998380E+00   0.7263480E+00     1
         1     1    -1     1   0.1501710E+04   0.1440000E+05   0.5653867E+04   0.1776377E+04    4   89  193  1  0.0000000E+00   0.7733396E-01   0.7086745E+00     1
         1     1    -1     1   0.1535987E+04   0.1444669E+05   0.5650000E+04   0.1776408E+04    4   90  193  1  0.6225084E+00   0.1000000E+01   0.6982200E+00     1
         1     1    -1     1   0.1556500E+04   0.1447500E+05   0.5647690E+04   0.1776439E+04    4   90  194  1  0.0000000E+00   0.9537943E+00   0.6923702E+00     1
         1     1    -1     1   0.1611296E+04   0.1455000E+05   0.5641474E+04   0.1776432E+04    4   90  195  1  0.0000000E+00   0.8294746E+00   0.6763640E+00     1
         1     1    -1     1   0.1665756E+04   0.1462500E+05   0.5635179E+04   0.1776351E+04    4   90  196  1  0.0000000E+00   0.7035797E+00   0.6643991E+00     1
         1     1    -1     1   0.1719894E+04   0.1470000E+05   0.5628904E+04   0.1776346E+04    4   90  197  1  0.0000000E+00   0.5780903E+00   0.6538570E+00     1
         1     1    -1     1   0.1774298E+04   0.1477500E+05   0.5622498E+04   0.1776335E+04    4   90  198  1  0.0000000E+00   0.4499564E+00   0.6375285E+00     1
         1     1    -1     1   0.1828142E+04   0.1485000E+05   0.5616066E+04   0.1776295E+04    4   90  199  1  0.0000000E+00   0.3213142E+00   0.6224764E+00     1
         1     1    -1     1   0.1882224E+04   0.1492500E+05   0.5609565E+04   0.1776234E+04    4   90  200  1  0.0000000E+00   0.1913044E+00   0.6136078E+00     1
         1     1    -1     1   0.1935760E+04   0.1500000E+05   0.5603031E+04   0.1776228E+04    4   90  201  1  0.0000000E+00   0.6061447E-01   0.6040035E+00     1
         1     1    -1     1   0.1959892E+04   0.1503363E+05   0.5600000E+04   0.1776328E+04    4   91  201  1  0.4484441E+00   0.1000000E+01   0.5954543E+00     1
         1     1    -1     1   0.1989385E+04   0.1507500E+05   0.5596355E+04   0.1776271E+04    4   91  202  1  0.0000000E+00   0.9271013E+00   0.5874412E+00     1
         1     1    -1     1   0.2042421E+04   0.1515000E+05   0.5589546E+04   0.1776259E+04    4   91  203  1  0.0000000E+00   0.7909237E+00   0.5776446E+00     1
         1     1    -1     1   0.2095660E+04   0.1522500E+05   0.5582663E+04   0.1776189E+04    4   91  204  1  0.0000000E+00   0.6532568E+00   0.5679533E+00     1
         1     1    -1     1   0.2148293E+04   0.1530000E+05   0.5575669E+04   0.1776146E+04    4   91  205  1  0.0000000E+00   0.5133924E+00   0.5542976E+00     1
         1     1    -1     1   0.2200811E+04   0.1537500E+05   0.5568470E+04   0.1776015E+04    4   91  206  1  0.0000000E+00   0.3693932E+00   0.5426255E+00     1
         1     1    -1     1   0.2253219E+04   0.1545000E+05   0.5560956E+04   0.1775954E+04    4   91  207  1  0.0000000E+00   0.2191208E+00   0.5342997E+00     1
         1     1    -1     1   0.2304986E+04   0.1552500E+05   0.5553250E+04   0.1775897E+04    4   91  208  1  0.0000000E+00   0.6500361E-01   0.5196568E+00     1
         1     1    -1     1   0.2325953E+04   0.1555528E+05   0.5550000E+04   0.1775965E+04    4   92  208  1  0.4037777E+00   0.1000000E+01   0.5152836E+00     1
         1     1    -1     1   0.2356427E+04   0.1560000E+05   0.5545294E+04   0.1775878E+04    4   92  209  1  0.0000000E+00   0.9058770E+00   0.5103003E+00     1
         1     1    -1     1   0.2407653E+04   0.1567500E+05   0.5536976E+04   0.1775781E+04    4   92  210  1  0.0000000E+00   0.7395099E+00   0.4974795E+00     1
         1     1    -1     1   0.2458140E+04   0.1575000E+05   0.5528317E+04   0.1775623E+04    4   92  211  1  0.0000000E+00   0.5663437E+00   0.4835468E+00     1
         1     1    -1     1   0.2508495E+04   0.1582500E+05   0.5519134E+04   0.1775529E+04    4   92  212  1  0.0000000E+00   0.3826782E+00   0.4713410E+00     1
         1     1    -1     1   0.2558060E+04   0.1590000E+05   0.5509467E+04   0.1775403E+04    4   92  213  1  0.0000000E+00   0.1893356E+00   0.4619282E+00     1
         1     1    -1     1   0.2603101E+04   0.1596833E+05   0.5500000E+04   0.1775411E+04    4   93  213  1  0.9111063E+00   0.1000000E+01   0.4501214E+00     1
         1     1    -1     1   0.2607392E+04   0.1597500E+05   0.5499104E+04   0.1775348E+04    4   93  214  1  0.0000000E+00   0.9820714E+00   0.4491698E+00     1
         1     1    -1     1   0.2655705E+04   0.1605000E+05   0.5488099E+04   0.1775224E+04    4   93  215  1  0.0000000E+00   0.7619839E+00   0.4333636E+00     1
         1     1    -1     1   0.2703133E+04   0.1612500E+05   0.5476179E+04   0.1775014E+04    4   93  216  1  0.0000000E+00   0.5235711E+00   0.4194643E+00     1
         1     1    -1     1   0.2749665E+04   0.1620000E+05   0.5463204E+04   0.1774881E+04    4   93  217  1  0.0000000E+00   0.2640716E+00   0.4101171E+00     1
         1     1    -1     1   0.2791815E+04   0.1626861E+05   0.5450000E+04   0.1774915E+04    4   94  217  1  0.9147468E+00   0.1000000E+01   0.4018710E+00     1
         1     1    -1     1   0.2795607E+04   0.1627500E+05   0.5448824E+04   0.1774805E+04    4   94  218  1  0.0000000E+00   0.9764845E+00   0.4006084E+00     1
         1     1    -1     1   0.2839295E+04   0.1635000E+05   0.5433024E+04   0.1774611E+04    4   94  219  1  0.0000000E+00   0.6604797E+00   0.3840398E+00     1
         1     1    -1     1   0.2882053E+04   0.1642500E+05   0.5415094E+04   0.1774386E+04    4   94  220  1  0.0000000E+00   0.3018737E+00   0.3686791E+00     1
         1     1    -1     1   0.2911726E+04   0.1647840E+05   0.5400000E+04   0.1774308E+04    4   95  220  1  0.7119542E+00   0.1000000E+01   0.3466364E+00     1
         1     1    -1     1   0.2922945E+04   0.1650000E+05   0.5394433E+04   0.1774115E+04    4   95  221  1  0.0000000E+00   0.8886615E+00   0.3351532E+00     1
         1     1    -1     1   0.2961122E+04   0.1657500E+05   0.5370800E+04   0.1773242E+04    4   95  222  1  0.0000000E+00   0.4160026E+00   0.2397459E+00     1
         1     1    -1     1   0.2987887E+04   0.1662667E+05   0.5350000E+04   0.1771454E+04    4   96  222  1  0.6889106E+00   0.1000000E+01   0.1878494E-01     1
         1     1    -1     1   0.2989251E+04   0.1662949E+05   0.5349013E+04   0.1771300E+04    5   96  222  1  0.7265301E+00   0.9802546E+00   0.1000000E+01     1
         1     1    -1     1   0.2998279E+04   0.1665000E+05   0.5342413E+04   0.1770128E+04    5   96  223  1  0.0000000E+00   0.8482500E+00   0.9239731E+00     1
         1     1    -1     1   0.3014287E+04   0.1667991E+05   0.5328177E+04   0.1757100E+04    6   96  223  1  0.3988649E+00   0.5635386E+00   0.1000000E+01     1
         1     1    -1     1   0.3016248E+04   0.1668058E+05   0.5327851E+04   0.1754600E+04    7   96  223  1  0.4077472E+00   0.5570250E+00   0.1000000E+01     1
         1     1    -1     1   0.3016248E+04   0.1668058E+05   0.5327851E+04   0.1754600E+04    7   96  223  1  0.4077472E+00   0.5570250E+00   0.1000000E+01     1
         2     1     0     1   0.0000000E+00   0.1248750E+05   0.5825000E+04   0.1782050E+04    3   86  167  1  0.5000000E+00   0.5000000E+00   0.5000000E+00     1
         2     1    -1     1   0.2909959E+02   0.1252500E+05   0.5821426E+04   0.1781776E+04    3   86  168  1  0.0000000E+00   0.4285297E+00   0.4678713E+00     1
         2     1    -1     1   0.8747919E+02   0.1260000E+05   0.5814311E+04   0.1781454E+04    3   86  169  1  0.0000000E+00   0.2862232E+00   0.4147689E+00     1
         2     1    -1     1   0.1456925E+03   0.1267500E+05   0.5807230E+04   0.1781132E+04    3   86  170  1  0.0000000E+00   0.1446065E+00   0.3619403E+00     1
         2     1    -1     1   0.2037525E+03   0.1275000E+05   0.5800161E+04   0.1780813E+04    3   86  171  1  0.0000000E+00   0.3214331E-02   0.3100448E+00     1
         2     1    -1     1   0.2050757E+03   0.1275171E+05   0.5800000E+04   0.1780841E+04    3   87  171  1  0.2280357E-01   0.1000000E+01   0.3088615E+00     1
         2     1    -1     1   0.2622626E+03   0.1282500E+05   0.5793342E+04   0.1780571E+04    3   87  172  1  0.0000000E+00   0.8668324E+00   0.2483027E+00     1
         2     1    -1     1   0.3187610E+03   0.1290000E+05   0.5786614E+04   0.1780282E+04    3   87  173  1  0.0000000E+00   0.7322897E+00   0.2006525E+00     1
         2     1    -1     1   0.3769292E+03   0.1297500E+05   0.5779884E+04   0.1780007E+04    3   87  174  1  0.0000000E+00   0.5976896E+00   0.1694681E+00     1
         2     1    -1     1   0.4343098E+03   0.1305000E+05   0.5773275E+04   0.1779799E+04    3   87  175  1  0.0000000E+00   0.4654963E+00   0.1244888E+00     1
         2     1    -1     1   0.4915475E+03   0.1312500E+05   0.5766706E+04   0.1779587E+04    3   87  176  1  0.0000000E+00   0.3341116E+00   0.7807285E-01     1
         2     1    -1     1   0.5487023E+03   0.1320000E+05   0.5760188E+04   0.1779373E+04    3   87  177  1  0.0000000E+00   0.2037466E+00   0.3051525E-01     1
         2     1    -1     1   0.5878687E+03   0.1325147E+05   0.5755732E+04   0.1779300E+04    4   87  177  1  0.6862234E+00   0.1146418E+00   0.1000000E+01     1
         2     1    -1     1   0.6057610E+03   0.1327500E+05   0.5753680E+04   0.1779167E+04    4   87  178  1  0.0000000E+00   0.7358901E-01   0.9950843E+00     1
         2     1    -1     1   0.6379301E+03   0.1331735E+05   0.5750000E+04   0.1779206E+04    4   88  178  1  0.5646797E+00   0.1000000E+01   0.9863903E+00     1
         2     1    -1     1   0.6627050E+03   0.1335000E+05   0.5747210E+04   0.1779058E+04    4   88  179  1  0.0000000E+00   0.9441978E+00   0.9794306E+00     1
         2     1    -1     1   0.7197537E+03   0.1342500E+05   0.5740784E+04   0.1778795E+04    4   88  180  1  0.0000000E+00   0.8156765E+00   0.9698368E+00     1
         2     1    -1     1   0.7760808E+03   0.1350000E+05   0.5734532E+04   0.1778588E+04    4   88  181  1  0.0000000E+00   0.6906383E+00   0.9547718E+00     1
         2     1    -1     1   0.8330823E+03   0.1357500E+05   0.5728248E+04   0.1778246E+04    4   88  182  1  0.0000000E+00   0.5649635E+00   0.9332058E+00     1
         2     1    -1     1   0.8894778E+03   0.1365000E+05   0.5721994E+04   0.1777945E+04    4   88  183  1  0.0000000E+00   0.4398807E+00   0.9171486E+00     1
         2     1    -1     1   0.9454465E+03   0.1372500E+05   0.5715751E+04   0.1777700E+04    4   88  184  1  0.0000000E+00   0.3150326E+00   0.8955590E+00     1
         2     1    -1     1   0.1001640E+04   0.1380000E+05   0.5709489E+04   0.1777396E+04    4   88  185  1  0.0000000E+00   0.1897712E+00   0.8782372E+00     1
         2     1    -1     1   0.1057443E+04   0.1387500E+05   0.5703209E+04   0.1777194E+04    4   88  186  1  0.0000000E+00   0.6418988E-01   0.8605616E+00     1
         2     1    -1     1   0.1085609E+04   0.1391318E+05   0.5700000E+04   0.1777184E+04    4   89  186  1  0.5090908E+00   0.1000000E+01   0.8483907E+00     1
         2     1    -1     1   0.1113029E+04   0.1395000E+05   0.5696972E+04   0.1777045E+04    4   89  187  1  0.0000000E+00   0.9394314E+00   0.8401673E+00     1
         2     1    -1     1   0.1168438E+04   0.1402500E+05   0.5690844E+04   0.1776842E+04    4   89  188  1  0.0000000E+00   0.8168787E+00   0.8218648E+00     1
         2     1    -1     1   0.1223628E+04   0.1410000E+05   0.5684712E+04   0.1776636E+04    4   89  189  1  0.0000000E+00   0.6942515E+00   0.8025872E+00     1
         2     1    -1     1   0.1278201E+04   0.1417500E+05   0.5678628E+04   0.1776609E+04    4   89  190  1  0.0000000E+00   0.5725556E+00   0.7859266E+00     1
         2     1    -1     1   0.1333352E+04   0.1425000E+05   0.5672476E+04   0.1776597E+04    4   89  191  1  0.0000000E+00   0.4495113E+00   0.7687344E+00     1
         2     1    -1     1   0.1388262E+04   0.1432500E+05   0.5666339E+04   0.1776572E+04    4   89  192  1  0.0000000E+00   0.3267912E+00   0.7495242E+00     1
         2     1    -1     1   0.1442892E+04   0.1440000E+05   0.5660194E+04   0.1776529E+04    4   89  193  1  0.0000000E+00   0.2038881E+00   0.7317185E+00     1
         2     1    -1     1   0.1497856E+04   0.1447500E+05   0.5653978E+04   0.1776518E+04    4   89  194  1  0.0000000E+00   0.7955189E-01   0.7148297E+00     1
         2     1    -1     1   0.1532235E+04   0.1452228E+05   0.5650000E+04   0.1776518E+04    4   90  194  1  0.6303827E+00   0.1000000E+01   0.7042544E+00     1
         2     1    -1     1   0.1552426E+04   0.1455000E+05   0.5647703E+04   0.1776579E+04    4   90  195  1  0.0000000E+00   0.9540622E+00   0.6983209E+00     1
         2     1    -1     1   0.1606886E+04   0.1462500E+05   0.5641377E+04   0.1776499E+04    4   90  196  1  0.0000000E+00   0.8275343E+00   0.6864124E+00     1
         2     1    -1     1   0.1661024E+04   0.1470000E+05   0.5635074E+04   0.1776495E+04    4   90  197  1  0.0000000E+00   0.7014734E+00   0.6757668E+00     1
         2     1    -1     1   0.1715428E+04   0.1477500E+05   0.5628644E+04   0.1776483E+04    4   90  198  1  0.0000000E+00   0.5728788E+00   0.6592911E+00     1
         2     1    -1     1   0.1769272E+04   0.1485000E+05   0.5622178E+04   0.1776445E+04    4   90  199  1  0.0000000E+00   0.4435516E+00   0.6441379E+00     1
         2     1    -1     1   0.1823354E+04   0.1492500E+05   0.5615649E+04   0.1776383E+04    4   90  200  1  0.0000000E+00   0.3129848E+00   0.6351492E+00     1
         2     1    -1     1   0.1876891E+04   0.1500000E+05   0.5609080E+04   0.1776378E+04    4   90  201  1  0.0000000E+00   0.1816036E+00   0.6254485E+00     1
         2     1    -1     1   0.1930428E+04   0.1507500E+05   0.5602340E+04   0.1776304E+04    4   90  202  1  0.0000000E+00   0.4680178E-01   0.6062457E+00     1
         2     1    -1     1   0.1948517E+04   0.1510026E+05   0.5600000E+04   0.1776370E+04    4   91  202  1  0.3368427E+00   0.1000000E+01   0.6014240E+00     1
         2     1    -1     1   0.1983629E+04   0.1515000E+05   0.5595471E+04   0.1776383E+04    4   91  203  1  0.0000000E+00   0.9094139E+00   0.5949049E+00     1
         2     1    -1     1   0.2036867E+04   0.1522500E+05   0.5588548E+04   0.1776313E+04    4   91  204  1  0.0000000E+00   0.7709614E+00   0.5851507E+00     1
         2     1    -1     1   0.2089501E+04   0.1530000E+05   0.5581524E+04   0.1776271E+04    4   91  205  1  0.0000000E+00   0.6304827E+00   0.5713698E+00     1
         2     1    -1     1   0.2142018E+04   0.1537500E+05   0.5574289E+04   0.1776140E+04    4   91  206  1  0.0000000E+00   0.4857720E+00   0.5594710E+00     1
         2     1    -1     1   0.2194426E+04   0.1545000E+05   0.5566736E+04   0.1776078E+04    4   91  207  1  0.0000000E+00   0.3347215E+00   0.5510572E+00     1
         2     1    -1     1   0.2246193E+04   0.1552500E+05   0.5558990E+04   0.1776022E+04    4   91  208  1  0.0000000E+00   0.1797961E+00   0.5363201E+00     1
         2     1    -1     1   0.2297816E+04   0.1560000E+05   0.5550961E+04   0.1775893E+04    4   91  209  1  0.0000000E+00   0.1923149E-01   0.5253933E+00     1
         2     1    -1     1   0.2303687E+04   0.1560851E+05   0.5550000E+04   0.1775985E+04    4   92  209  1  0.1134413E+00   0.1000000E+01   0.5243602E+00     1
         2     1    -1     1   0.2349066E+04   0.1567500E+05   0.5542597E+04   0.1775898E+04    4   92  210  1  0.0000000E+00   0.8519339E+00   0.5129178E+00     1
         2     1    -1     1   0.2399552E+04   0.1575000E+05   0.5533889E+04   0.1775741E+04    4   92  211  1  0.0000000E+00   0.6777763E+00   0.4988900E+00     1
         2     1    -1     1   0.2449908E+04   0.1582500E+05   0.5524661E+04   0.1775646E+04    4   92  212  1  0.0000000E+00   0.4932115E+00   0.4865588E+00     1
         2     1    -1     1   0.2499472E+04   0.1590000E+05   0.5514920E+04   0.1775521E+04    4   92  213  1  0.0000000E+00   0.2984118E+00   0.4771140E+00     1
         2     1    -1     1   0.2548871E+04   0.1597500E+05   0.5504481E+04   0.1775420E+04    4   92  214  1  0.0000000E+00   0.8961675E-01   0.4640838E+00     1
         2     1    -1     1   0.2568113E+04   0.1600458E+05   0.5500000E+04   0.1775417E+04    4   93  214  1  0.3943807E+00   0.1000000E+01   0.4578630E+00     1
         2     1    -1     1   0.2597250E+04   0.1605000E+05   0.5493340E+04   0.1775341E+04    4   93  215  1  0.0000000E+00   0.8668070E+00   0.4482680E+00     1
         2     1    -1     1   0.2644678E+04   0.1612500E+05   0.5481342E+04   0.1775131E+04    4   93  216  1  0.0000000E+00   0.6268440E+00   0.4343558E+00     1
         2     1    -1     1   0.2691210E+04   0.1620000E+05   0.5468269E+04   0.1775000E+04    4   93  217  1  0.0000000E+00   0.3653672E+00   0.4249624E+00     1
         2     1    -1     1   0.2737240E+04   0.1627500E+05   0.5453759E+04   0.1774827E+04    4   93  218  1  0.0000000E+00   0.7517584E-01   0.4159014E+00     1
         2     1    -1     1   0.2747428E+04   0.1629184E+05   0.5450000E+04   0.1774897E+04    4   94  218  1  0.2245383E+00   0.1000000E+01   0.4121297E+00     1
         2     1    -1     1   0.2781176E+04   0.1635000E+05   0.5437725E+04   0.1774734E+04    4   94  219  1  0.0000000E+00   0.7544892E+00   0.3992968E+00     1
         2     1    -1     1   0.2823934E+04   0.1642500E+05   0.5419616E+04   0.1774510E+04    4   94  220  1  0.0000000E+00   0.3923160E+00   0.3840096E+00     1
         2     1    -1     1   0.2862329E+04   0.1649427E+05   0.5400000E+04   0.1774381E+04    4   95  220  1  0.9235811E+00   0.1000000E+01   0.3556817E+00     1
         2     1    -1     1   0.2865292E+04   0.1650000E+05   0.5398519E+04   0.1774257E+04    4   95  221  1  0.0000000E+00   0.9703844E+00   0.3526741E+00     1
         2     1    -1     1   0.2903469E+04   0.1657500E+05   0.5374486E+04   0.1773395E+04    4   95  222  1  0.0000000E+00   0.4897187E+00   0.2586506E+00     1
         2     1    -1     1   0.2934698E+04   0.1663498E+05   0.5350000E+04   0.1771310E+04    4   96  222  1  0.7996947E+00   0.1000000E+01   0.1174583E-02     1
         2     1    -1     1   0.2934783E+04   0.1663515E+05   0.5349938E+04   0.1771300E+04    5   96  222  1  0.8020225E+00   0.9987662E+00   0.1000000E+01     1
         2     1    -1     1   0.2941309E+04   0.1665000E+05   0.5345041E+04   0.1770434E+04    5   96  223  1  0.0000000E+00   0.9008181E+00   0.9457070E+00     1
         2     1    -1     1   0.2957942E+04   0.1668085E+05   0.5329321E+04   0.1757100E+04    6   96  223  1  0.4113386E+00   0.5864214E+00   0.1000000E+01     1
         2     1    -1     1   0.2959904E+04   0.1668150E+05   0.5328959E+04   0.1754600E+04    7   96  223  1  0.4199595E+00   0.5791798E+00   0.1000000E+01     1
         2     1    -1     1   0.2959904E+04   0.1668150E+05   0.5328959E+04   0.1754600E+04    7   96  223  1  0.4199595E+00   0.5791798E+00   0.1000000E+01     1
         3     1     0     1   0.0000000E+00   0.1256250E+05   0.5825000E+04   0.1781850E+04    3   86  168  1  0.5000000E+00   0.5000000E+00   0.5000000E+00     1
         3     1    -1     1   0.2916828E+02   0.1260000E+05   0.5821438E+04   0.1781589E+04    3   86  169  1  0.0000000E+00   0.4287672E+00   0.4734508E+00     1
         3     1    -1     1   0.8738162E+02   0.1267500E+05   0.5814336E+04   0.1781268E+04    3   86  170  1  0.0000000E+00   0.2867263E+00   0.4206443E+00     1
         3     1    -1     1   0.1454415E+03   0.1275000E+05   0.5807246E+04   0.1780948E+04    3   86  171  1  0.0000000E+00   0.1449215E+00   0.3687690E+00     1
         3     1    -1     1   0.2033285E+03   0.1282500E+05   0.5800202E+04   0.1780629E+04    3   86  172  1  0.0000000E+00   0.4038410E-02   0.3169719E+00     1
         3     1    -1     1   0.2050229E+03   0.1282720E+05   0.5800000E+04   0.1780726E+04    3   87  172  1  0.2930614E-01   0.1000000E+01   0.3154571E+00     1
         3     1    -1     1   0.2598634E+03   0.1290000E+05   0.5793467E+04   0.1780446E+04    3   87  173  1  0.0000000E+00   0.8693441E+00   0.2690623E+00     1
         3     1    -1     1   0.3180316E+03   0.1297500E+05   0.5786718E+04   0.1780167E+04    3   87  174  1  0.0000000E+00   0.7343554E+00   0.2364407E+00     1
         3     1    -1     1   0.3754123E+03   0.1305000E+05   0.5780105E+04   0.1779959E+04    3   87  175  1  0.0000000E+00   0.6021129E+00   0.1912598E+00     1
         3     1    -1     1   0.4326499E+03   0.1312500E+05   0.5773530E+04   0.1779748E+04    3   87  176  1  0.0000000E+00   0.4706092E+00   0.1447954E+00     1
         3     1    -1     1   0.4898047E+03   0.1320000E+05   0.5767001E+04   0.1779534E+04    3   87  177  1  0.0000000E+00   0.3400164E+00   0.9726611E-01     1
         3     1    -1     1   0.5468620E+03   0.1327500E+05   0.5760510E+04   0.1779326E+04    3   87  178  1  0.0000000E+00   0.2101988E+00   0.5269669E-01     1
         3     1    -1     1   0.6038076E+03   0.1335000E+05   0.5754054E+04   0.1779122E+04    3   87  179  1  0.0000000E+00   0.8107582E-01   0.9004746E-02     1
         3     1    -1     1   0.6165792E+03   0.1336684E+05   0.5752601E+04   0.1779100E+04    4   87  179  1  0.2245396E+00   0.5201111E-01   0.1000000E+01     1
         3     1    -1     1   0.6392780E+03   0.1339670E+05   0.5750000E+04   0.1779161E+04    4   88  179  1  0.6226939E+00   0.1000000E+01   0.9943489E+00     1
         3     1    -1     1   0.6608406E+03   0.1342500E+05   0.5747568E+04   0.1778937E+04    4   88  180  1  0.0000000E+00   0.9513598E+00   0.9907733E+00     1
         3     1    -1     1   0.7171678E+03   0.1350000E+05   0.5741310E+04   0.1778732E+04    4   88  181  1  0.0000000E+00   0.8261878E+00   0.9756866E+00     1
         3     1    -1     1   0.7741693E+03   0.1357500E+05   0.5735026E+04   0.1778387E+04    4   88  182  1  0.0000000E+00   0.7005295E+00   0.9540492E+00     1
         3     1    -1     1   0.8305648E+03   0.1365000E+05   0.5728768E+04   0.1778086E+04    4   88  183  1  0.0000000E+00   0.5753595E+00   0.9382393E+00     1
         3     1    -1     1   0.8865334E+03   0.1372500E+05   0.5722517E+04   0.1777842E+04    4   88  184  1  0.0000000E+00   0.4503353E+00   0.9167460E+00     1
         3     1    -1     1   0.9427274E+03   0.1380000E+05   0.5716233E+04   0.1777537E+04    4   88  185  1  0.0000000E+00   0.3246722E+00   0.8995886E+00     1
         3     1    -1     1   0.9985300E+03   0.1387500E+05   0.5709946E+04   0.1777334E+04    4   88  186  1  0.0000000E+00   0.1989293E+00   0.8821832E+00     1
         3     1    -1     1   0.1053908E+04   0.1395000E+05   0.5703630E+04   0.1777079E+04    4   88  187  1  0.0000000E+00   0.7260305E-01   0.8583333E+00     1
         3     1    -1     1   0.1086124E+04   0.1399349E+05   0.5700000E+04   0.1777097E+04    4   89  187  1  0.5798025E+00   0.1000000E+01   0.8480273E+00     1
         3     1    -1     1   0.1109487E+04   0.1402500E+05   0.5697411E+04   0.1776963E+04    4   89  188  1  0.0000000E+00   0.9482188E+00   0.8403906E+00     1
         3     1    -1     1   0.1164676E+04   0.1410000E+05   0.5691267E+04   0.1776757E+04    4   89  189  1  0.0000000E+00   0.8253364E+00   0.8213507E+00     1
         3     1    -1     1   0.1219249E+04   0.1417500E+05   0.5685168E+04   0.1776730E+04    4   89  190  1  0.0000000E+00   0.7033624E+00   0.8046865E+00     1
         3     1    -1     1   0.1274401E+04   0.1425000E+05   0.5678994E+04   0.1776718E+04    4   89  191  1  0.0000000E+00   0.5798828E+00   0.7874151E+00     1
         3     1    -1     1   0.1329310E+04   0.1432500E+05   0.5672839E+04   0.1776694E+04    4   89  192  1  0.0000000E+00   0.4567804E+00   0.7682359E+00     1
         3     1    -1     1   0.1383941E+04   0.1440000E+05   0.5666673E+04   0.1776652E+04    4   89  193  1  0.0000000E+00   0.3334687E+00   0.7503234E+00     1
         3     1    -1     1   0.1438905E+04   0.1447500E+05   0.5660436E+04   0.1776640E+04    4   89  194  1  0.0000000E+00   0.2087181E+00   0.7333180E+00     1
         3     1    -1     1   0.1493343E+04   0.1455000E+05   0.5654118E+04   0.1776600E+04    4   89  195  1  0.0000000E+00   0.8235621E-01   0.7164796E+00     1
         3     1    -1     1   0.1528603E+04   0.1459813E+05   0.5650000E+04   0.1776647E+04    4   90  195  1  0.6416980E+00   0.1000000E+01   0.7084995E+00     1
         3     1    -1     1   0.1548101E+04   0.1462500E+05   0.5647727E+04   0.1776618E+04    4   90  196  1  0.0000000E+00   0.9545403E+00   0.7042490E+00     1
         3     1    -1     1   0.1602239E+04   0.1470000E+05   0.5641395E+04   0.1776616E+04    4   90  197  1  0.0000000E+00   0.8278937E+00   0.6935196E+00     1
         3     1    -1     1   0.1656643E+04   0.1477500E+05   0.5634941E+04   0.1776603E+04    4   90  198  1  0.0000000E+00   0.6988272E+00   0.6769247E+00     1